
---------- Begin Simulation Statistics ----------
sim_seconds                                  0.002308                       # Number of seconds simulated
sim_ticks                                  2307963500                       # Number of ticks simulated
final_tick                                 2307963500                       # Number of ticks from beginning of simulation (restored from checkpoints and never reset)
sim_freq                                 1000000000000                       # Frequency of simulated ticks
host_inst_rate                                 279858                       # Simulator instruction rate (inst/s)
host_op_rate                                   381352                       # Simulator op (including micro ops) rate (op/s)
host_tick_rate                              120575867                       # Simulator tick rate (ticks/s)
host_mem_usage                                 647260                       # Number of bytes of host memory used
host_seconds                                    19.14                       # Real time elapsed on the host
sim_insts                                     5356810                       # Number of instructions simulated
sim_ops                                       7299519                       # Number of ops (including micro ops) simulated
system.clk_domain.voltage_domain.voltage            1                       # Voltage in Volts
system.clk_domain.clock                           500                       # Clock period in ticks
system.mem_ctrl.pwrStateResidencyTicks::UNDEFINED   2307963500                       # Cumulative time (in ticks) in various power states
system.mem_ctrl.bytes_read::.cpu.inst           27520                       # Number of bytes read from this memory
system.mem_ctrl.bytes_read::.cpu.data           43072                       # Number of bytes read from this memory
system.mem_ctrl.bytes_read::total               70592                       # Number of bytes read from this memory
system.mem_ctrl.bytes_inst_read::.cpu.inst        27520                       # Number of instructions bytes read from this memory
system.mem_ctrl.bytes_inst_read::total          27520                       # Number of instructions bytes read from this memory
system.mem_ctrl.num_reads::.cpu.inst              430                       # Number of read requests responded to by this memory
system.mem_ctrl.num_reads::.cpu.data              673                       # Number of read requests responded to by this memory
system.mem_ctrl.num_reads::total                 1103                       # Number of read requests responded to by this memory
system.mem_ctrl.bw_read::.cpu.inst           11923932                       # Total read bandwidth from this memory (bytes/s)
system.mem_ctrl.bw_read::.cpu.data           18662340                       # Total read bandwidth from this memory (bytes/s)
system.mem_ctrl.bw_read::total               30586272                       # Total read bandwidth from this memory (bytes/s)
system.mem_ctrl.bw_inst_read::.cpu.inst      11923932                       # Instruction read bandwidth from this memory (bytes/s)
system.mem_ctrl.bw_inst_read::total          11923932                       # Instruction read bandwidth from this memory (bytes/s)
system.mem_ctrl.bw_total::.cpu.inst          11923932                       # Total bandwidth to/from this memory (bytes/s)
system.mem_ctrl.bw_total::.cpu.data          18662340                       # Total bandwidth to/from this memory (bytes/s)
system.mem_ctrl.bw_total::total              30586272                       # Total bandwidth to/from this memory (bytes/s)
system.mem_ctrl.avgPriority_.cpu.inst::samples       430.00                       # Average QoS priority value for accepted requests
system.mem_ctrl.avgPriority_.cpu.data::samples       673.00                       # Average QoS priority value for accepted requests
system.mem_ctrl.priorityMinLatency       0.000000018750                       # per QoS priority minimum request to response latency (s)
system.mem_ctrl.priorityMaxLatency       0.000001099750                       # per QoS priority maximum request to response latency (s)
system.mem_ctrl.numReadWriteTurnArounds             0                       # Number of turnarounds from READ to WRITE
system.mem_ctrl.numWriteReadTurnArounds             0                       # Number of turnarounds from WRITE to READ
system.mem_ctrl.numStayReadState                 2207                       # Number of times bus staying in READ state
system.mem_ctrl.numStayWriteState                   0                       # Number of times bus staying in WRITE state
system.mem_ctrl.readReqs                         1103                       # Number of read requests accepted
system.mem_ctrl.writeReqs                           0                       # Number of write requests accepted
system.mem_ctrl.readBursts                       1103                       # Number of DRAM read bursts, including those serviced by the write queue
system.mem_ctrl.writeBursts                         0                       # Number of DRAM write bursts, including those merged in the write queue
system.mem_ctrl.bytesReadDRAM                   70592                       # Total number of bytes read from DRAM
system.mem_ctrl.bytesReadWrQ                        0                       # Total number of bytes read from write queue
system.mem_ctrl.bytesWritten                        0                       # Total number of bytes written to DRAM
system.mem_ctrl.bytesReadSys                    70592                       # Total read bytes from the system interface side
system.mem_ctrl.bytesWrittenSys                     0                       # Total written bytes from the system interface side
system.mem_ctrl.servicedByWrQ                       0                       # Number of DRAM read bursts serviced by the write queue
system.mem_ctrl.mergedWrBursts                      0                       # Number of DRAM write bursts merged with an existing one
system.mem_ctrl.neitherReadNorWriteReqs             0                       # Number of requests that are neither read nor write
system.mem_ctrl.perBankRdBursts::0                146                       # Per bank write bursts
system.mem_ctrl.perBankRdBursts::1                 66                       # Per bank write bursts
system.mem_ctrl.perBankRdBursts::2                 74                       # Per bank write bursts
system.mem_ctrl.perBankRdBursts::3                150                       # Per bank write bursts
system.mem_ctrl.perBankRdBursts::4                 75                       # Per bank write bursts
system.mem_ctrl.perBankRdBursts::5                 34                       # Per bank write bursts
system.mem_ctrl.perBankRdBursts::6                 45                       # Per bank write bursts
system.mem_ctrl.perBankRdBursts::7                 32                       # Per bank write bursts
system.mem_ctrl.perBankRdBursts::8                  3                       # Per bank write bursts
system.mem_ctrl.perBankRdBursts::9                131                       # Per bank write bursts
system.mem_ctrl.perBankRdBursts::10                58                       # Per bank write bursts
system.mem_ctrl.perBankRdBursts::11                 2                       # Per bank write bursts
system.mem_ctrl.perBankRdBursts::12                35                       # Per bank write bursts
system.mem_ctrl.perBankRdBursts::13                54                       # Per bank write bursts
system.mem_ctrl.perBankRdBursts::14               145                       # Per bank write bursts
system.mem_ctrl.perBankRdBursts::15                53                       # Per bank write bursts
system.mem_ctrl.perBankWrBursts::0                  0                       # Per bank write bursts
system.mem_ctrl.perBankWrBursts::1                  0                       # Per bank write bursts
system.mem_ctrl.perBankWrBursts::2                  0                       # Per bank write bursts
system.mem_ctrl.perBankWrBursts::3                  0                       # Per bank write bursts
system.mem_ctrl.perBankWrBursts::4                  0                       # Per bank write bursts
system.mem_ctrl.perBankWrBursts::5                  0                       # Per bank write bursts
system.mem_ctrl.perBankWrBursts::6                  0                       # Per bank write bursts
system.mem_ctrl.perBankWrBursts::7                  0                       # Per bank write bursts
system.mem_ctrl.perBankWrBursts::8                  0                       # Per bank write bursts
system.mem_ctrl.perBankWrBursts::9                  0                       # Per bank write bursts
system.mem_ctrl.perBankWrBursts::10                 0                       # Per bank write bursts
system.mem_ctrl.perBankWrBursts::11                 0                       # Per bank write bursts
system.mem_ctrl.perBankWrBursts::12                 0                       # Per bank write bursts
system.mem_ctrl.perBankWrBursts::13                 0                       # Per bank write bursts
system.mem_ctrl.perBankWrBursts::14                 0                       # Per bank write bursts
system.mem_ctrl.perBankWrBursts::15                 0                       # Per bank write bursts
system.mem_ctrl.numRdRetry                          0                       # Number of times read queue was full causing retry
system.mem_ctrl.numWrRetry                          0                       # Number of times write queue was full causing retry
system.mem_ctrl.totGap                     2307872000                       # Total gap between requests
system.mem_ctrl.readPktSize::0                      0                       # Read request sizes (log2)
system.mem_ctrl.readPktSize::1                      0                       # Read request sizes (log2)
system.mem_ctrl.readPktSize::2                      0                       # Read request sizes (log2)
system.mem_ctrl.readPktSize::3                      0                       # Read request sizes (log2)
system.mem_ctrl.readPktSize::4                      0                       # Read request sizes (log2)
system.mem_ctrl.readPktSize::5                      0                       # Read request sizes (log2)
system.mem_ctrl.readPktSize::6                   1103                       # Read request sizes (log2)
system.mem_ctrl.writePktSize::0                     0                       # Write request sizes (log2)
system.mem_ctrl.writePktSize::1                     0                       # Write request sizes (log2)
system.mem_ctrl.writePktSize::2                     0                       # Write request sizes (log2)
system.mem_ctrl.writePktSize::3                     0                       # Write request sizes (log2)
system.mem_ctrl.writePktSize::4                     0                       # Write request sizes (log2)
system.mem_ctrl.writePktSize::5                     0                       # Write request sizes (log2)
system.mem_ctrl.writePktSize::6                     0                       # Write request sizes (log2)
system.mem_ctrl.rdQLenPdf::0                      785                       # What read queue length does an incoming req see
system.mem_ctrl.rdQLenPdf::1                      255                       # What read queue length does an incoming req see
system.mem_ctrl.rdQLenPdf::2                       50                       # What read queue length does an incoming req see
system.mem_ctrl.rdQLenPdf::3                       11                       # What read queue length does an incoming req see
system.mem_ctrl.rdQLenPdf::4                        2                       # What read queue length does an incoming req see
system.mem_ctrl.rdQLenPdf::5                        0                       # What read queue length does an incoming req see
system.mem_ctrl.rdQLenPdf::6                        0                       # What read queue length does an incoming req see
system.mem_ctrl.rdQLenPdf::7                        0                       # What read queue length does an incoming req see
system.mem_ctrl.rdQLenPdf::8                        0                       # What read queue length does an incoming req see
system.mem_ctrl.rdQLenPdf::9                        0                       # What read queue length does an incoming req see
system.mem_ctrl.rdQLenPdf::10                       0                       # What read queue length does an incoming req see
system.mem_ctrl.rdQLenPdf::11                       0                       # What read queue length does an incoming req see
system.mem_ctrl.rdQLenPdf::12                       0                       # What read queue length does an incoming req see
system.mem_ctrl.rdQLenPdf::13                       0                       # What read queue length does an incoming req see
system.mem_ctrl.rdQLenPdf::14                       0                       # What read queue length does an incoming req see
system.mem_ctrl.rdQLenPdf::15                       0                       # What read queue length does an incoming req see
system.mem_ctrl.rdQLenPdf::16                       0                       # What read queue length does an incoming req see
system.mem_ctrl.rdQLenPdf::17                       0                       # What read queue length does an incoming req see
system.mem_ctrl.rdQLenPdf::18                       0                       # What read queue length does an incoming req see
system.mem_ctrl.rdQLenPdf::19                       0                       # What read queue length does an incoming req see
system.mem_ctrl.rdQLenPdf::20                       0                       # What read queue length does an incoming req see
system.mem_ctrl.rdQLenPdf::21                       0                       # What read queue length does an incoming req see
system.mem_ctrl.rdQLenPdf::22                       0                       # What read queue length does an incoming req see
system.mem_ctrl.rdQLenPdf::23                       0                       # What read queue length does an incoming req see
system.mem_ctrl.rdQLenPdf::24                       0                       # What read queue length does an incoming req see
system.mem_ctrl.rdQLenPdf::25                       0                       # What read queue length does an incoming req see
system.mem_ctrl.rdQLenPdf::26                       0                       # What read queue length does an incoming req see
system.mem_ctrl.rdQLenPdf::27                       0                       # What read queue length does an incoming req see
system.mem_ctrl.rdQLenPdf::28                       0                       # What read queue length does an incoming req see
system.mem_ctrl.rdQLenPdf::29                       0                       # What read queue length does an incoming req see
system.mem_ctrl.rdQLenPdf::30                       0                       # What read queue length does an incoming req see
system.mem_ctrl.rdQLenPdf::31                       0                       # What read queue length does an incoming req see
system.mem_ctrl.wrQLenPdf::0                        0                       # What write queue length does an incoming req see
system.mem_ctrl.wrQLenPdf::1                        0                       # What write queue length does an incoming req see
system.mem_ctrl.wrQLenPdf::2                        0                       # What write queue length does an incoming req see
system.mem_ctrl.wrQLenPdf::3                        0                       # What write queue length does an incoming req see
system.mem_ctrl.wrQLenPdf::4                        0                       # What write queue length does an incoming req see
system.mem_ctrl.wrQLenPdf::5                        0                       # What write queue length does an incoming req see
system.mem_ctrl.wrQLenPdf::6                        0                       # What write queue length does an incoming req see
system.mem_ctrl.wrQLenPdf::7                        0                       # What write queue length does an incoming req see
system.mem_ctrl.wrQLenPdf::8                        0                       # What write queue length does an incoming req see
system.mem_ctrl.wrQLenPdf::9                        0                       # What write queue length does an incoming req see
system.mem_ctrl.wrQLenPdf::10                       0                       # What write queue length does an incoming req see
system.mem_ctrl.wrQLenPdf::11                       0                       # What write queue length does an incoming req see
system.mem_ctrl.wrQLenPdf::12                       0                       # What write queue length does an incoming req see
system.mem_ctrl.wrQLenPdf::13                       0                       # What write queue length does an incoming req see
system.mem_ctrl.wrQLenPdf::14                       0                       # What write queue length does an incoming req see
system.mem_ctrl.wrQLenPdf::15                       0                       # What write queue length does an incoming req see
system.mem_ctrl.wrQLenPdf::16                       0                       # What write queue length does an incoming req see
system.mem_ctrl.wrQLenPdf::17                       0                       # What write queue length does an incoming req see
system.mem_ctrl.wrQLenPdf::18                       0                       # What write queue length does an incoming req see
system.mem_ctrl.wrQLenPdf::19                       0                       # What write queue length does an incoming req see
system.mem_ctrl.wrQLenPdf::20                       0                       # What write queue length does an incoming req see
system.mem_ctrl.wrQLenPdf::21                       0                       # What write queue length does an incoming req see
system.mem_ctrl.wrQLenPdf::22                       0                       # What write queue length does an incoming req see
system.mem_ctrl.wrQLenPdf::23                       0                       # What write queue length does an incoming req see
system.mem_ctrl.wrQLenPdf::24                       0                       # What write queue length does an incoming req see
system.mem_ctrl.wrQLenPdf::25                       0                       # What write queue length does an incoming req see
system.mem_ctrl.wrQLenPdf::26                       0                       # What write queue length does an incoming req see
system.mem_ctrl.wrQLenPdf::27                       0                       # What write queue length does an incoming req see
system.mem_ctrl.wrQLenPdf::28                       0                       # What write queue length does an incoming req see
system.mem_ctrl.wrQLenPdf::29                       0                       # What write queue length does an incoming req see
system.mem_ctrl.wrQLenPdf::30                       0                       # What write queue length does an incoming req see
system.mem_ctrl.wrQLenPdf::31                       0                       # What write queue length does an incoming req see
system.mem_ctrl.wrQLenPdf::32                       0                       # What write queue length does an incoming req see
system.mem_ctrl.wrQLenPdf::33                       0                       # What write queue length does an incoming req see
system.mem_ctrl.wrQLenPdf::34                       0                       # What write queue length does an incoming req see
system.mem_ctrl.wrQLenPdf::35                       0                       # What write queue length does an incoming req see
system.mem_ctrl.wrQLenPdf::36                       0                       # What write queue length does an incoming req see
system.mem_ctrl.wrQLenPdf::37                       0                       # What write queue length does an incoming req see
system.mem_ctrl.wrQLenPdf::38                       0                       # What write queue length does an incoming req see
system.mem_ctrl.wrQLenPdf::39                       0                       # What write queue length does an incoming req see
system.mem_ctrl.wrQLenPdf::40                       0                       # What write queue length does an incoming req see
system.mem_ctrl.wrQLenPdf::41                       0                       # What write queue length does an incoming req see
system.mem_ctrl.wrQLenPdf::42                       0                       # What write queue length does an incoming req see
system.mem_ctrl.wrQLenPdf::43                       0                       # What write queue length does an incoming req see
system.mem_ctrl.wrQLenPdf::44                       0                       # What write queue length does an incoming req see
system.mem_ctrl.wrQLenPdf::45                       0                       # What write queue length does an incoming req see
system.mem_ctrl.wrQLenPdf::46                       0                       # What write queue length does an incoming req see
system.mem_ctrl.wrQLenPdf::47                       0                       # What write queue length does an incoming req see
system.mem_ctrl.wrQLenPdf::48                       0                       # What write queue length does an incoming req see
system.mem_ctrl.wrQLenPdf::49                       0                       # What write queue length does an incoming req see
system.mem_ctrl.wrQLenPdf::50                       0                       # What write queue length does an incoming req see
system.mem_ctrl.wrQLenPdf::51                       0                       # What write queue length does an incoming req see
system.mem_ctrl.wrQLenPdf::52                       0                       # What write queue length does an incoming req see
system.mem_ctrl.wrQLenPdf::53                       0                       # What write queue length does an incoming req see
system.mem_ctrl.wrQLenPdf::54                       0                       # What write queue length does an incoming req see
system.mem_ctrl.wrQLenPdf::55                       0                       # What write queue length does an incoming req see
system.mem_ctrl.wrQLenPdf::56                       0                       # What write queue length does an incoming req see
system.mem_ctrl.wrQLenPdf::57                       0                       # What write queue length does an incoming req see
system.mem_ctrl.wrQLenPdf::58                       0                       # What write queue length does an incoming req see
system.mem_ctrl.wrQLenPdf::59                       0                       # What write queue length does an incoming req see
system.mem_ctrl.wrQLenPdf::60                       0                       # What write queue length does an incoming req see
system.mem_ctrl.wrQLenPdf::61                       0                       # What write queue length does an incoming req see
system.mem_ctrl.wrQLenPdf::62                       0                       # What write queue length does an incoming req see
system.mem_ctrl.wrQLenPdf::63                       0                       # What write queue length does an incoming req see
system.mem_ctrl.bytesPerActivate::samples          166                       # Bytes accessed per row activation
system.mem_ctrl.bytesPerActivate::mean     414.457831                       # Bytes accessed per row activation
system.mem_ctrl.bytesPerActivate::gmean    257.810087                       # Bytes accessed per row activation
system.mem_ctrl.bytesPerActivate::stdev    365.294843                       # Bytes accessed per row activation
system.mem_ctrl.bytesPerActivate::0-127            39     23.49%     23.49% # Bytes accessed per row activation
system.mem_ctrl.bytesPerActivate::128-255           40     24.10%     47.59% # Bytes accessed per row activation
system.mem_ctrl.bytesPerActivate::256-383           20     12.05%     59.64% # Bytes accessed per row activation
system.mem_ctrl.bytesPerActivate::384-511            6      3.61%     63.25% # Bytes accessed per row activation
system.mem_ctrl.bytesPerActivate::512-639           13      7.83%     71.08% # Bytes accessed per row activation
system.mem_ctrl.bytesPerActivate::640-767            8      4.82%     75.90% # Bytes accessed per row activation
system.mem_ctrl.bytesPerActivate::768-895            5      3.01%     78.92% # Bytes accessed per row activation
system.mem_ctrl.bytesPerActivate::896-1023            5      3.01%     81.93% # Bytes accessed per row activation
system.mem_ctrl.bytesPerActivate::1024-1151           30     18.07%    100.00% # Bytes accessed per row activation
system.mem_ctrl.bytesPerActivate::total           166                       # Bytes accessed per row activation
system.mem_ctrl.masterReadBytes::.cpu.inst        27520                       # Per-master bytes read from memory
system.mem_ctrl.masterReadBytes::.cpu.data        43072                       # Per-master bytes read from memory
system.mem_ctrl.masterReadRate::.cpu.inst 11923932.072582604364                       # Per-master bytes read from memory rate (Bytes/sec)
system.mem_ctrl.masterReadRate::.cpu.data 18662340.197321146727                       # Per-master bytes read from memory rate (Bytes/sec)
system.mem_ctrl.masterReadAccesses::.cpu.inst          430                       # Per-master read serviced memory accesses
system.mem_ctrl.masterReadAccesses::.cpu.data          673                       # Per-master read serviced memory accesses
system.mem_ctrl.masterReadTotalLat::.cpu.inst     15682750                       # Per-master read total memory access latency
system.mem_ctrl.masterReadTotalLat::.cpu.data     20969500                       # Per-master read total memory access latency
system.mem_ctrl.masterReadAvgLat::.cpu.inst     36471.51                       # Per-master read average memory access latency
system.mem_ctrl.masterReadAvgLat::.cpu.data     31158.25                       # Per-master read average memory access latency
system.mem_ctrl.totQLat                      15971000                       # Total ticks spent queuing
system.mem_ctrl.totMemAccLat                 36652250                       # Total ticks spent from burst creation until serviced by the DRAM
system.mem_ctrl.totBusLat                     5515000                       # Total ticks spent in databus transfers
system.mem_ctrl.avgQLat                      14479.60                       # Average queueing delay per DRAM burst
system.mem_ctrl.avgBusLat                     5000.00                       # Average bus latency per DRAM burst
system.mem_ctrl.avgMemAccLat                 33229.60                       # Average memory access latency per DRAM burst
system.mem_ctrl.avgRdBW                         30.59                       # Average DRAM read bandwidth in MiByte/s
system.mem_ctrl.avgWrBW                          0.00                       # Average achieved write bandwidth in MiByte/s
system.mem_ctrl.avgRdBWSys                      30.59                       # Average system read bandwidth in MiByte/s
system.mem_ctrl.avgWrBWSys                       0.00                       # Average system write bandwidth in MiByte/s
system.mem_ctrl.peakBW                       12800.00                       # Theoretical peak bandwidth in MiByte/s
system.mem_ctrl.busUtil                          0.24                       # Data bus utilization in percentage
system.mem_ctrl.busUtilRead                      0.24                       # Data bus utilization in percentage for reads
system.mem_ctrl.busUtilWrite                     0.00                       # Data bus utilization in percentage for writes
system.mem_ctrl.avgRdQLen                        1.01                       # Average read queue length when enqueuing
system.mem_ctrl.avgWrQLen                        0.00                       # Average write queue length when enqueuing
system.mem_ctrl.readRowHits                       929                       # Number of row buffer hits during reads
system.mem_ctrl.writeRowHits                        0                       # Number of row buffer hits during writes
system.mem_ctrl.readRowHitRate                  84.22                       # Row buffer hit rate for reads
system.mem_ctrl.writeRowHitRate                   nan                       # Row buffer hit rate for writes
system.mem_ctrl.avgGap                     2092359.02                       # Average gap between requests
system.mem_ctrl.pageHitRate                     84.22                       # Row buffer hit rate, read and write combined
system.mem_ctrl_0.actEnergy                    706860                       # Energy for activate commands per rank (pJ)
system.mem_ctrl_0.preEnergy                    356730                       # Energy for precharge commands per rank (pJ)
system.mem_ctrl_0.readEnergy                  4441080                       # Energy for read commands per rank (pJ)
system.mem_ctrl_0.writeEnergy                       0                       # Energy for write commands per rank (pJ)
system.mem_ctrl_0.refreshEnergy          9834240.000000                       # Energy for refresh commands per rank (pJ)
system.mem_ctrl_0.actBackEnergy               9570300                       # Energy for active background per rank (pJ)
system.mem_ctrl_0.preBackEnergy                535680                       # Energy for precharge background per rank (pJ)
system.mem_ctrl_0.actPowerDownEnergy         38476710                       # Energy for active power-down per rank (pJ)
system.mem_ctrl_0.prePowerDownEnergy          8728320                       # Energy for precharge power-down per rank (pJ)
system.mem_ctrl_0.selfRefreshEnergy         524490120                       # Energy for self refresh per rank (pJ)
system.mem_ctrl_0.totalEnergy               597140040                       # Total energy per rank (pJ)
system.mem_ctrl_0.averagePower             258.730279                       # Core power per rank (mW)
system.mem_ctrl_0.totalIdleTime            2285521250                       # Total Idle time Per DRAM Rank
system.mem_ctrl_0.memoryStateTime::IDLE        900500                       # Time in different power states
system.mem_ctrl_0.memoryStateTime::REF        4160000                       # Time in different power states
system.mem_ctrl_0.memoryStateTime::SREF    2178471000                       # Time in different power states
system.mem_ctrl_0.memoryStateTime::PRE_PDN     22729750                       # Time in different power states
system.mem_ctrl_0.memoryStateTime::ACT       17333500                       # Time in different power states
system.mem_ctrl_0.memoryStateTime::ACT_PDN     84368750                       # Time in different power states
system.mem_ctrl_1.actEnergy                    535500                       # Energy for activate commands per rank (pJ)
system.mem_ctrl_1.preEnergy                    273240                       # Energy for precharge commands per rank (pJ)
system.mem_ctrl_1.readEnergy                  3434340                       # Energy for read commands per rank (pJ)
system.mem_ctrl_1.writeEnergy                       0                       # Energy for write commands per rank (pJ)
system.mem_ctrl_1.refreshEnergy          3687840.000000                       # Energy for refresh commands per rank (pJ)
system.mem_ctrl_1.actBackEnergy               5823120                       # Energy for active background per rank (pJ)
system.mem_ctrl_1.preBackEnergy                365280                       # Energy for precharge background per rank (pJ)
system.mem_ctrl_1.actPowerDownEnergy         12331950                       # Energy for active power-down per rank (pJ)
system.mem_ctrl_1.prePowerDownEnergy          3685440                       # Energy for precharge power-down per rank (pJ)
system.mem_ctrl_1.selfRefreshEnergy         542376540                       # Energy for self refresh per rank (pJ)
system.mem_ctrl_1.totalEnergy               572513250                       # Total energy per rank (pJ)
system.mem_ctrl_1.averagePower             248.059924                       # Core power per rank (mW)
system.mem_ctrl_1.totalIdleTime            2294235500                       # Total Idle time Per DRAM Rank
system.mem_ctrl_1.memoryStateTime::IDLE        788500                       # Time in different power states
system.mem_ctrl_1.memoryStateTime::REF        1560000                       # Time in different power states
system.mem_ctrl_1.memoryStateTime::SREF    2257600500                       # Time in different power states
system.mem_ctrl_1.memoryStateTime::PRE_PDN      9596500                       # Time in different power states
system.mem_ctrl_1.memoryStateTime::ACT       11379500                       # Time in different power states
system.mem_ctrl_1.memoryStateTime::ACT_PDN     27038500                       # Time in different power states
system.pwrStateResidencyTicks::UNDEFINED   2307963500                       # Cumulative time (in ticks) in various power states
system.cpu.branchPred.lookups                  269882                       # Number of BP lookups
system.cpu.branchPred.condPredicted            269882                       # Number of conditional branches predicted
system.cpu.branchPred.condIncorrect              3706                       # Number of conditional branches incorrect
system.cpu.branchPred.BTBLookups               269179                       # Number of BTB lookups
system.cpu.branchPred.BTBHits                       0                       # Number of BTB hits
system.cpu.branchPred.BTBCorrect                    0                       # Number of correct BTB predictions (this stat may not work properly.
system.cpu.branchPred.BTBHitPct              0.000000                       # BTB Hit Percentage
system.cpu.branchPred.usedRAS                     337                       # Number of times the RAS was used to get a target.
system.cpu.branchPred.RASInCorrect                114                       # Number of incorrect RAS predictions.
system.cpu.branchPred.indirectLookups          269179                       # Number of indirect predictor lookups.
system.cpu.branchPred.indirectHits             265826                       # Number of indirect target hits.
system.cpu.branchPred.indirectMisses             3353                       # Number of indirect misses.
system.cpu.branchPredindirectMispredicted          733                       # Number of mispredicted indirect branches.
system.cpu.dtb.walker.pwrStateResidencyTicks::UNDEFINED   2307963500                       # Cumulative time (in ticks) in various power states
system.cpu.dtb.rdAccesses                     1418680                       # TLB accesses on read requests
system.cpu.dtb.wrAccesses                      137207                       # TLB accesses on write requests
system.cpu.dtb.rdMisses                            70                       # TLB misses on read requests
system.cpu.dtb.wrMisses                            30                       # TLB misses on write requests
system.cpu.apic_clk_domain.clock                 8000                       # Clock period in ticks
system.cpu.interrupts.pwrStateResidencyTicks::UNDEFINED   2307963500                       # Cumulative time (in ticks) in various power states
system.cpu.itb.walker.pwrStateResidencyTicks::UNDEFINED   2307963500                       # Cumulative time (in ticks) in various power states
system.cpu.itb.rdAccesses                           0                       # TLB accesses on read requests
system.cpu.itb.wrAccesses                      663090                       # TLB accesses on write requests
system.cpu.itb.rdMisses                             0                       # TLB misses on read requests
system.cpu.itb.wrMisses                           131                       # TLB misses on write requests
system.cpu.workload.numSyscalls                     9                       # Number of system calls
system.cpu.pwrStateResidencyTicks::ON      2307963500                       # Cumulative time (in ticks) in various power states
system.cpu.numCycles                          4615928                       # number of cpu cycles simulated
system.cpu.numWorkItemsStarted                      0                       # number of work items this cpu started
system.cpu.numWorkItemsCompleted                    0                       # number of work items this cpu completed
system.cpu.fetch.icacheStallCycles              31752                       # Number of cycles fetch is stalled on an Icache miss
system.cpu.fetch.Insts                        5509569                       # Number of instructions fetch has processed
system.cpu.fetch.Branches                      269882                       # Number of branches that fetch encountered
system.cpu.fetch.predictedBranches             266163                       # Number of branches that fetch has predicted taken
system.cpu.fetch.Cycles                       4556230                       # Number of cycles fetch has run and was not squashing or blocked
system.cpu.fetch.SquashCycles                    7572                       # Number of cycles fetch has spent squashing
system.cpu.fetch.MiscStallCycles                   70                       # Number of cycles fetch has spent waiting on interrupts, or bad addresses, or out of MSHRs
system.cpu.fetch.PendingTrapStallCycles           950                       # Number of stall cycles due to pending traps
system.cpu.fetch.PendingQuiesceStallCycles           21                       # Number of stall cycles due to pending quiesce instructions
system.cpu.fetch.IcacheWaitRetryStallCycles           67                       # Number of stall cycles due to full MSHR
system.cpu.fetch.CacheLines                    662995                       # Number of cache lines fetched
system.cpu.fetch.IcacheSquashes                   253                       # Number of outstanding Icache misses that were squashed
system.cpu.fetch.rateDist::samples            4592876                       # Number of instructions fetched each cycle (Total)
system.cpu.fetch.rateDist::mean              1.634583                       # Number of instructions fetched each cycle (Total)
system.cpu.fetch.rateDist::stdev             0.710460                       # Number of instructions fetched each cycle (Total)
system.cpu.fetch.rateDist::underflows               0      0.00%      0.00% # Number of instructions fetched each cycle (Total)
system.cpu.fetch.rateDist::0                   626619     13.64%     13.64% # Number of instructions fetched each cycle (Total)
system.cpu.fetch.rateDist::1                   425076      9.26%     22.90% # Number of instructions fetched each cycle (Total)
system.cpu.fetch.rateDist::2                  3541181     77.10%    100.00% # Number of instructions fetched each cycle (Total)
system.cpu.fetch.rateDist::overflows                0      0.00%    100.00% # Number of instructions fetched each cycle (Total)
system.cpu.fetch.rateDist::min_value                0                       # Number of instructions fetched each cycle (Total)
system.cpu.fetch.rateDist::max_value                2                       # Number of instructions fetched each cycle (Total)
system.cpu.fetch.rateDist::total              4592876                       # Number of instructions fetched each cycle (Total)
system.cpu.fetch.branchRate                  0.058468                       # Number of branch fetches per cycle
system.cpu.fetch.rate                        1.193599                       # Number of inst fetches per cycle
system.cpu.decode.IdleCycles                   320100                       # Number of cycles decode is idle
system.cpu.decode.BlockedCycles                550439                       # Number of cycles decode is blocked
system.cpu.decode.RunCycles                   3340985                       # Number of cycles decode is running
system.cpu.decode.UnblockCycles                377566                       # Number of cycles decode is unblocking
system.cpu.decode.SquashCycles                   3786                       # Number of cycles decode is squashing
system.cpu.decode.DecodedInsts                7414383                       # Number of instructions handled by decode
system.cpu.decode.SquashedInsts                  3374                       # Number of squashed instructions handled by decode
system.cpu.rename.SquashCycles                   3786                       # Number of cycles rename is squashing
system.cpu.rename.IdleCycles                   513953                       # Number of cycles rename is idle
system.cpu.rename.BlockCycles                  207108                       # Number of cycles rename is blocking
system.cpu.rename.serializeStallCycles           2147                       # count of cycles rename stalled for serializing inst
system.cpu.rename.RunCycles                   3509295                       # Number of cycles rename is running
system.cpu.rename.UnblockCycles                356587                       # Number of cycles rename is unblocking
system.cpu.rename.RenamedInsts                7400820                       # Number of instructions processed by rename
system.cpu.rename.SquashedInsts                  6606                       # Number of squashed instructions processed by rename
system.cpu.rename.ROBFullEvents                    10                       # Number of times rename has blocked due to ROB full
system.cpu.rename.IQFullEvents                 108904                       # Number of times rename has blocked due to IQ full
system.cpu.rename.LQFullEvents                   3965                       # Number of times rename has blocked due to LQ full
system.cpu.rename.SQFullEvents                   9975                       # Number of times rename has blocked due to SQ full
system.cpu.rename.FullRegisterEvents           104383                       # Number of times there has been no free registers
system.cpu.rename.RenamedOperands            11523620                       # Number of destination operands rename has renamed
system.cpu.rename.RenameLookups              15977557                       # Number of register rename lookups that rename has made
system.cpu.rename.int_rename_lookups         11306101                       # Number of integer rename lookups
system.cpu.rename.fp_rename_lookups            633233                       # Number of floating rename lookups
system.cpu.rename.CommittedMaps              11361886                       # Number of HB maps that are committed
system.cpu.rename.UndoneMaps                   161734                       # Number of HB maps that are undone due to squashing
system.cpu.rename.serializingInsts                 23                       # count of serializing insts renamed
system.cpu.rename.tempSerializingInsts             19                       # count of temporary serializing insts renamed
system.cpu.rename.skidInsts                    485100                       # count of insts added to the skid buffer
system.cpu.memDep0.insertedLoads              1424483                       # Number of loads inserted to the mem dependence unit.
system.cpu.memDep0.insertedStores              138287                       # Number of stores inserted to the mem dependence unit.
system.cpu.memDep0.conflictingLoads            382587                       # Number of conflicting loads.
system.cpu.memDep0.conflictingStores              213                       # Number of conflicting stores.
system.cpu.iq.iqInstsAdded                    7386874                       # Number of instructions added to the IQ (excludes non-spec)
system.cpu.iq.iqNonSpecInstsAdded                 698                       # Number of non-speculative instructions added to the IQ
system.cpu.iq.iqInstsIssued                   7340598                       # Number of instructions issued
system.cpu.iq.iqSquashedInstsIssued               785                       # Number of squashed instructions issued
system.cpu.iq.iqSquashedInstsExamined           88052                       # Number of squashed instructions iterated over during squash; mainly for profiling
system.cpu.iq.iqSquashedOperandsExamined       135149                       # Number of squashed operands that are examined and possibly removed from graph
system.cpu.iq.iqSquashedNonSpecRemoved             64                       # Number of squashed non-spec instructions that were removed
system.cpu.iq.issued_per_cycle::samples       4592876                       # Number of insts issued each cycle
system.cpu.iq.issued_per_cycle::mean         1.598257                       # Number of insts issued each cycle
system.cpu.iq.issued_per_cycle::stdev        0.587034                       # Number of insts issued each cycle
system.cpu.iq.issued_per_cycle::underflows            0      0.00%      0.00% # Number of insts issued each cycle
system.cpu.iq.issued_per_cycle::0              239435      5.21%      5.21% # Number of insts issued each cycle
system.cpu.iq.issued_per_cycle::1             1366284     29.75%     34.96% # Number of insts issued each cycle
system.cpu.iq.issued_per_cycle::2             2987157     65.04%    100.00% # Number of insts issued each cycle
system.cpu.iq.issued_per_cycle::overflows            0      0.00%    100.00% # Number of insts issued each cycle
system.cpu.iq.issued_per_cycle::min_value            0                       # Number of insts issued each cycle
system.cpu.iq.issued_per_cycle::max_value            2                       # Number of insts issued each cycle
system.cpu.iq.issued_per_cycle::total         4592876                       # Number of insts issued each cycle
system.cpu.iq.fu_full::No_OpClass                   0      0.00%      0.00% # attempts to use FU when none available
system.cpu.iq.fu_full::IntAlu                       0      0.00%      0.00% # attempts to use FU when none available
system.cpu.iq.fu_full::IntMult                      0      0.00%      0.00% # attempts to use FU when none available
system.cpu.iq.fu_full::IntDiv                       0      0.00%      0.00% # attempts to use FU when none available
system.cpu.iq.fu_full::FloatAdd                 45574     15.08%     15.08% # attempts to use FU when none available
system.cpu.iq.fu_full::FloatCmp                     0      0.00%     15.08% # attempts to use FU when none available
system.cpu.iq.fu_full::FloatCvt                     0      0.00%     15.08% # attempts to use FU when none available
system.cpu.iq.fu_full::FloatMult                    0      0.00%     15.08% # attempts to use FU when none available
system.cpu.iq.fu_full::FloatMultAcc                 0      0.00%     15.08% # attempts to use FU when none available
system.cpu.iq.fu_full::FloatDiv                     0      0.00%     15.08% # attempts to use FU when none available
system.cpu.iq.fu_full::FloatMisc                    0      0.00%     15.08% # attempts to use FU when none available
system.cpu.iq.fu_full::FloatSqrt                    0      0.00%     15.08% # attempts to use FU when none available
system.cpu.iq.fu_full::SimdAdd                    247      0.08%     15.16% # attempts to use FU when none available
system.cpu.iq.fu_full::SimdAddAcc                   0      0.00%     15.16% # attempts to use FU when none available
system.cpu.iq.fu_full::SimdAlu                     52      0.02%     15.17% # attempts to use FU when none available
system.cpu.iq.fu_full::SimdCmp                      0      0.00%     15.17% # attempts to use FU when none available
system.cpu.iq.fu_full::SimdCvt                     15      0.00%     15.18% # attempts to use FU when none available
system.cpu.iq.fu_full::SimdMisc                   116      0.04%     15.22% # attempts to use FU when none available
system.cpu.iq.fu_full::SimdMult                     0      0.00%     15.22% # attempts to use FU when none available
system.cpu.iq.fu_full::SimdMultAcc                  0      0.00%     15.22% # attempts to use FU when none available
system.cpu.iq.fu_full::SimdShift                  124      0.04%     15.26% # attempts to use FU when none available
system.cpu.iq.fu_full::SimdShiftAcc                 0      0.00%     15.26% # attempts to use FU when none available
system.cpu.iq.fu_full::SimdSqrt                     0      0.00%     15.26% # attempts to use FU when none available
system.cpu.iq.fu_full::SimdFloatAdd                 0      0.00%     15.26% # attempts to use FU when none available
system.cpu.iq.fu_full::SimdFloatAlu                 0      0.00%     15.26% # attempts to use FU when none available
system.cpu.iq.fu_full::SimdFloatCmp                 0      0.00%     15.26% # attempts to use FU when none available
system.cpu.iq.fu_full::SimdFloatCvt                 0      0.00%     15.26% # attempts to use FU when none available
system.cpu.iq.fu_full::SimdFloatDiv                 0      0.00%     15.26% # attempts to use FU when none available
system.cpu.iq.fu_full::SimdFloatMisc                0      0.00%     15.26% # attempts to use FU when none available
system.cpu.iq.fu_full::SimdFloatMult                0      0.00%     15.26% # attempts to use FU when none available
system.cpu.iq.fu_full::SimdFloatMultAcc             0      0.00%     15.26% # attempts to use FU when none available
system.cpu.iq.fu_full::SimdFloatSqrt                0      0.00%     15.26% # attempts to use FU when none available
system.cpu.iq.fu_full::SimdAes                      0      0.00%     15.26% # attempts to use FU when none available
system.cpu.iq.fu_full::SimdAesMix                   0      0.00%     15.26% # attempts to use FU when none available
system.cpu.iq.fu_full::SimdSha1Hash                 0      0.00%     15.26% # attempts to use FU when none available
system.cpu.iq.fu_full::SimdSha1Hash2                0      0.00%     15.26% # attempts to use FU when none available
system.cpu.iq.fu_full::SimdSha256Hash               0      0.00%     15.26% # attempts to use FU when none available
system.cpu.iq.fu_full::SimdSha256Hash2              0      0.00%     15.26% # attempts to use FU when none available
system.cpu.iq.fu_full::SimdShaSigma2                0      0.00%     15.26% # attempts to use FU when none available
system.cpu.iq.fu_full::SimdShaSigma3                0      0.00%     15.26% # attempts to use FU when none available
system.cpu.iq.fu_full::MemRead                 253505     83.86%     99.12% # attempts to use FU when none available
system.cpu.iq.fu_full::MemWrite                  2663      0.88%    100.00% # attempts to use FU when none available
system.cpu.iq.fu_full::FloatMemRead                 0      0.00%    100.00% # attempts to use FU when none available
system.cpu.iq.fu_full::FloatMemWrite                0      0.00%    100.00% # attempts to use FU when none available
system.cpu.iq.fu_full::IprAccess                    0      0.00%    100.00% # attempts to use FU when none available
system.cpu.iq.fu_full::InstPrefetch                 0      0.00%    100.00% # attempts to use FU when none available
system.cpu.iq.FU_type_0::No_OpClass               915      0.01%      0.01% # Type of FU issued
system.cpu.iq.FU_type_0::IntAlu               4767365     64.95%     64.96% # Type of FU issued
system.cpu.iq.FU_type_0::IntMult                    4      0.00%     64.96% # Type of FU issued
system.cpu.iq.FU_type_0::IntDiv                    16      0.00%     64.96% # Type of FU issued
system.cpu.iq.FU_type_0::FloatAdd              762015     10.38%     75.34% # Type of FU issued
system.cpu.iq.FU_type_0::FloatCmp                   0      0.00%     75.34% # Type of FU issued
system.cpu.iq.FU_type_0::FloatCvt                   0      0.00%     75.34% # Type of FU issued
system.cpu.iq.FU_type_0::FloatMult                  0      0.00%     75.34% # Type of FU issued
system.cpu.iq.FU_type_0::FloatMultAcc               0      0.00%     75.34% # Type of FU issued
system.cpu.iq.FU_type_0::FloatDiv                   0      0.00%     75.34% # Type of FU issued
system.cpu.iq.FU_type_0::FloatMisc                  0      0.00%     75.34% # Type of FU issued
system.cpu.iq.FU_type_0::FloatSqrt                  0      0.00%     75.34% # Type of FU issued
system.cpu.iq.FU_type_0::SimdAdd                  375      0.01%     75.34% # Type of FU issued
system.cpu.iq.FU_type_0::SimdAddAcc                 0      0.00%     75.34% # Type of FU issued
system.cpu.iq.FU_type_0::SimdAlu                   68      0.00%     75.34% # Type of FU issued
system.cpu.iq.FU_type_0::SimdCmp                    0      0.00%     75.34% # Type of FU issued
system.cpu.iq.FU_type_0::SimdCvt                  108      0.00%     75.35% # Type of FU issued
system.cpu.iq.FU_type_0::SimdMisc                 215      0.00%     75.35% # Type of FU issued
system.cpu.iq.FU_type_0::SimdMult                   0      0.00%     75.35% # Type of FU issued
system.cpu.iq.FU_type_0::SimdMultAcc                0      0.00%     75.35% # Type of FU issued
system.cpu.iq.FU_type_0::SimdShift                186      0.00%     75.35% # Type of FU issued
system.cpu.iq.FU_type_0::SimdShiftAcc               0      0.00%     75.35% # Type of FU issued
system.cpu.iq.FU_type_0::SimdSqrt                   0      0.00%     75.35% # Type of FU issued
system.cpu.iq.FU_type_0::SimdFloatAdd          125204      1.71%     77.06% # Type of FU issued
system.cpu.iq.FU_type_0::SimdFloatAlu               0      0.00%     77.06% # Type of FU issued
system.cpu.iq.FU_type_0::SimdFloatCmp               0      0.00%     77.06% # Type of FU issued
system.cpu.iq.FU_type_0::SimdFloatCvt          125000      1.70%     78.76% # Type of FU issued
system.cpu.iq.FU_type_0::SimdFloatDiv               0      0.00%     78.76% # Type of FU issued
system.cpu.iq.FU_type_0::SimdFloatMisc              0      0.00%     78.76% # Type of FU issued
system.cpu.iq.FU_type_0::SimdFloatMult              0      0.00%     78.76% # Type of FU issued
system.cpu.iq.FU_type_0::SimdFloatMultAcc            0      0.00%     78.76% # Type of FU issued
system.cpu.iq.FU_type_0::SimdFloatSqrt              0      0.00%     78.76% # Type of FU issued
system.cpu.iq.FU_type_0::SimdAes                    0      0.00%     78.76% # Type of FU issued
system.cpu.iq.FU_type_0::SimdAesMix                 0      0.00%     78.76% # Type of FU issued
system.cpu.iq.FU_type_0::SimdSha1Hash               0      0.00%     78.76% # Type of FU issued
system.cpu.iq.FU_type_0::SimdSha1Hash2              0      0.00%     78.76% # Type of FU issued
system.cpu.iq.FU_type_0::SimdSha256Hash             0      0.00%     78.76% # Type of FU issued
system.cpu.iq.FU_type_0::SimdSha256Hash2            0      0.00%     78.76% # Type of FU issued
system.cpu.iq.FU_type_0::SimdShaSigma2              0      0.00%     78.76% # Type of FU issued
system.cpu.iq.FU_type_0::SimdShaSigma3              0      0.00%     78.76% # Type of FU issued
system.cpu.iq.FU_type_0::MemRead              1041215     14.18%     92.94% # Type of FU issued
system.cpu.iq.FU_type_0::MemWrite              134347      1.83%     94.77% # Type of FU issued
system.cpu.iq.FU_type_0::FloatMemRead          380421      5.18%     99.96% # Type of FU issued
system.cpu.iq.FU_type_0::FloatMemWrite           3144      0.04%    100.00% # Type of FU issued
system.cpu.iq.FU_type_0::IprAccess                  0      0.00%    100.00% # Type of FU issued
system.cpu.iq.FU_type_0::InstPrefetch               0      0.00%    100.00% # Type of FU issued
system.cpu.iq.FU_type_0::total                7340598                       # Type of FU issued
system.cpu.iq.rate                           1.590276                       # Inst issue rate
system.cpu.iq.fu_busy_cnt                      302296                       # FU busy when requested
system.cpu.iq.fu_busy_rate                   0.041181                       # FU busy rate (busy events/executed inst)
system.cpu.iq.int_inst_queue_reads           16736462                       # Number of integer instruction queue reads
system.cpu.iq.int_inst_queue_writes           6066051                       # Number of integer instruction queue writes
system.cpu.iq.int_inst_queue_wakeup_accesses      5935063                       # Number of integer instruction queue wakeup accesses
system.cpu.iq.fp_inst_queue_reads             2840691                       # Number of floating instruction queue reads
system.cpu.iq.fp_inst_queue_writes            1409587                       # Number of floating instruction queue writes
system.cpu.iq.fp_inst_queue_wakeup_accesses      1390759                       # Number of floating instruction queue wakeup accesses
system.cpu.iq.vec_inst_queue_reads                  0                       # Number of vector instruction queue reads
system.cpu.iq.vec_inst_queue_writes                 0                       # Number of vector instruction queue writes
system.cpu.iq.vec_inst_queue_wakeup_accesses            0                       # Number of vector instruction queue wakeup accesses
system.cpu.iq.int_alu_accesses                6198601                       # Number of integer alu accesses
system.cpu.iq.fp_alu_accesses                 1443378                       # Number of floating point alu accesses
system.cpu.iq.vec_alu_accesses                      0                       # Number of vector alu accesses
system.cpu.iew.lsq.thread0.forwLoads           499946                       # Number of loads that had data forwarded from stores
system.cpu.iew.lsq.thread0.invAddrLoads             0                       # Number of loads ignored due to an invalid address
system.cpu.iew.lsq.thread0.squashedLoads        17365                       # Number of loads squashed
system.cpu.iew.lsq.thread0.ignoredResponses         2466                       # Number of memory responses ignored because the instruction is squashed
system.cpu.iew.lsq.thread0.memOrderViolation           14                       # Number of memory ordering violations
system.cpu.iew.lsq.thread0.squashedStores         1591                       # Number of stores squashed
system.cpu.iew.lsq.thread0.invAddrSwpfs             0                       # Number of software prefetches ignored due to an invalid address
system.cpu.iew.lsq.thread0.blockedLoads             0                       # Number of blocked loads due to partial load-store forwarding
system.cpu.iew.lsq.thread0.rescheduledLoads            0                       # Number of loads that were rescheduled
system.cpu.iew.lsq.thread0.cacheBlocked          1136                       # Number of times an access to memory failed due to the cache being blocked
system.cpu.iew.iewIdleCycles                        0                       # Number of cycles IEW is idle
system.cpu.iew.iewSquashCycles                   3786                       # Number of cycles IEW is squashing
system.cpu.iew.iewBlockCycles                    4896                       # Number of cycles IEW is blocking
system.cpu.iew.iewUnblockCycles                  1476                       # Number of cycles IEW is unblocking
system.cpu.iew.iewDispatchedInsts             7387572                       # Number of instructions dispatched to IQ
system.cpu.iew.iewDispSquashedInsts               757                       # Number of squashed instructions skipped by dispatch
system.cpu.iew.iewDispLoadInsts               1424483                       # Number of dispatched load instructions
system.cpu.iew.iewDispStoreInsts               138287                       # Number of dispatched store instructions
system.cpu.iew.iewDispNonSpecInsts                658                       # Number of dispatched non-speculative instructions
system.cpu.iew.iewIQFullEvents                     10                       # Number of times the IQ has become full, causing a stall
system.cpu.iew.iewLSQFullEvents                  1452                       # Number of times the LSQ has become full, causing a stall
system.cpu.iew.memOrderViolationEvents             14                       # Number of memory order violations
system.cpu.iew.predictedTakenIncorrect           2795                       # Number of branches that were predicted taken incorrectly
system.cpu.iew.predictedNotTakenIncorrect         1103                       # Number of branches that were predicted not taken incorrectly
system.cpu.iew.branchMispredicts                 3898                       # Number of branch mispredicts detected at execute
system.cpu.iew.iewExecutedInsts               7330142                       # Number of executed instructions
system.cpu.iew.iewExecLoadInsts               1418674                       # Number of load instructions executed
system.cpu.iew.iewExecSquashedInsts             10456                       # Number of squashed instructions skipped in execute
system.cpu.iew.exec_swp                             0                       # number of swp insts executed
system.cpu.iew.exec_nop                             0                       # number of nop insts executed
system.cpu.iew.exec_refs                      1555881                       # number of memory reference insts executed
system.cpu.iew.exec_branches                   262189                       # Number of branches executed
system.cpu.iew.exec_stores                     137207                       # Number of stores executed
system.cpu.iew.exec_rate                     1.588010                       # Inst execution rate
system.cpu.iew.wb_sent                        7326185                       # cumulative count of insts sent to commit
system.cpu.iew.wb_count                       7325822                       # cumulative count of insts written-back
system.cpu.iew.wb_producers                   6064409                       # num instructions producing a value
system.cpu.iew.wb_consumers                   9772783                       # num instructions consuming a value
system.cpu.iew.wb_rate                       1.587075                       # insts written-back per cycle
system.cpu.iew.wb_fanout                     0.620541                       # average fanout of values written-back
system.cpu.commit.commitSquashedInsts           86182                       # The number of squashed insts skipped by commit
system.cpu.commit.commitNonSpecStalls             634                       # The number of times commit has been forced to stall to communicate backwards
system.cpu.commit.branchMispredicts              3773                       # The number of times a branch was mispredicted
system.cpu.commit.committed_per_cycle::samples      4585506                       # Number of insts commited each cycle
system.cpu.commit.committed_per_cycle::mean     1.591868                       # Number of insts commited each cycle
system.cpu.commit.committed_per_cycle::stdev     0.753735                       # Number of insts commited each cycle
system.cpu.commit.committed_per_cycle::underflows            0      0.00%      0.00% # Number of insts commited each cycle
system.cpu.commit.committed_per_cycle::0       748711     16.33%     16.33% # Number of insts commited each cycle
system.cpu.commit.committed_per_cycle::1       374071      8.16%     24.49% # Number of insts commited each cycle
system.cpu.commit.committed_per_cycle::2      3462724     75.51%    100.00% # Number of insts commited each cycle
system.cpu.commit.committed_per_cycle::overflows            0      0.00%    100.00% # Number of insts commited each cycle
system.cpu.commit.committed_per_cycle::min_value            0                       # Number of insts commited each cycle
system.cpu.commit.committed_per_cycle::max_value            2                       # Number of insts commited each cycle
system.cpu.commit.committed_per_cycle::total      4585506                       # Number of insts commited each cycle
system.cpu.commit.committedInsts              5356810                       # Number of instructions committed
system.cpu.commit.committedOps                7299519                       # Number of ops (including micro ops) committed
system.cpu.commit.swp_count                         0                       # Number of s/w prefetches committed
system.cpu.commit.refs                        1543814                       # Number of memory references committed
system.cpu.commit.loads                       1407118                       # Number of loads committed
system.cpu.commit.membars                           0                       # Number of memory barriers committed
system.cpu.commit.branches                     261710                       # Number of branches committed
system.cpu.commit.vec_insts                         0                       # Number of committed Vector instructions.
system.cpu.commit.fp_insts                    1389843                       # Number of committed floating point instructions.
system.cpu.commit.int_insts                   6291351                       # Number of committed integer instructions.
system.cpu.commit.function_calls                  125                       # Number of function calls committed.
system.cpu.commit.op_class_0::No_OpClass          725      0.01%      0.01% # Class of committed instruction
system.cpu.commit.op_class_0::IntAlu          4747982     65.05%     65.06% # Class of committed instruction
system.cpu.commit.op_class_0::IntMult               4      0.00%     65.06% # Class of committed instruction
system.cpu.commit.op_class_0::IntDiv               14      0.00%     65.06% # Class of committed instruction
system.cpu.commit.op_class_0::FloatAdd         755826     10.35%     75.41% # Class of committed instruction
system.cpu.commit.op_class_0::FloatCmp              0      0.00%     75.41% # Class of committed instruction
system.cpu.commit.op_class_0::FloatCvt              0      0.00%     75.41% # Class of committed instruction
system.cpu.commit.op_class_0::FloatMult             0      0.00%     75.41% # Class of committed instruction
system.cpu.commit.op_class_0::FloatMultAcc            0      0.00%     75.41% # Class of committed instruction
system.cpu.commit.op_class_0::FloatDiv              0      0.00%     75.41% # Class of committed instruction
system.cpu.commit.op_class_0::FloatMisc             0      0.00%     75.41% # Class of committed instruction
system.cpu.commit.op_class_0::FloatSqrt             0      0.00%     75.41% # Class of committed instruction
system.cpu.commit.op_class_0::SimdAdd             374      0.01%     75.41% # Class of committed instruction
system.cpu.commit.op_class_0::SimdAddAcc            0      0.00%     75.41% # Class of committed instruction
system.cpu.commit.op_class_0::SimdAlu              68      0.00%     75.42% # Class of committed instruction
system.cpu.commit.op_class_0::SimdCmp               0      0.00%     75.42% # Class of committed instruction
system.cpu.commit.op_class_0::SimdCvt             108      0.00%     75.42% # Class of committed instruction
system.cpu.commit.op_class_0::SimdMisc            214      0.00%     75.42% # Class of committed instruction
system.cpu.commit.op_class_0::SimdMult              0      0.00%     75.42% # Class of committed instruction
system.cpu.commit.op_class_0::SimdMultAcc            0      0.00%     75.42% # Class of committed instruction
system.cpu.commit.op_class_0::SimdShift           186      0.00%     75.42% # Class of committed instruction
system.cpu.commit.op_class_0::SimdShiftAcc            0      0.00%     75.42% # Class of committed instruction
system.cpu.commit.op_class_0::SimdSqrt              0      0.00%     75.42% # Class of committed instruction
system.cpu.commit.op_class_0::SimdFloatAdd       125204      1.72%     77.14% # Class of committed instruction
system.cpu.commit.op_class_0::SimdFloatAlu            0      0.00%     77.14% # Class of committed instruction
system.cpu.commit.op_class_0::SimdFloatCmp            0      0.00%     77.14% # Class of committed instruction
system.cpu.commit.op_class_0::SimdFloatCvt       125000      1.71%     78.85% # Class of committed instruction
system.cpu.commit.op_class_0::SimdFloatDiv            0      0.00%     78.85% # Class of committed instruction
system.cpu.commit.op_class_0::SimdFloatMisc            0      0.00%     78.85% # Class of committed instruction
system.cpu.commit.op_class_0::SimdFloatMult            0      0.00%     78.85% # Class of committed instruction
system.cpu.commit.op_class_0::SimdFloatMultAcc            0      0.00%     78.85% # Class of committed instruction
system.cpu.commit.op_class_0::SimdFloatSqrt            0      0.00%     78.85% # Class of committed instruction
system.cpu.commit.op_class_0::SimdAes               0      0.00%     78.85% # Class of committed instruction
system.cpu.commit.op_class_0::SimdAesMix            0      0.00%     78.85% # Class of committed instruction
system.cpu.commit.op_class_0::SimdSha1Hash            0      0.00%     78.85% # Class of committed instruction
system.cpu.commit.op_class_0::SimdSha1Hash2            0      0.00%     78.85% # Class of committed instruction
system.cpu.commit.op_class_0::SimdSha256Hash            0      0.00%     78.85% # Class of committed instruction
system.cpu.commit.op_class_0::SimdSha256Hash2            0      0.00%     78.85% # Class of committed instruction
system.cpu.commit.op_class_0::SimdShaSigma2            0      0.00%     78.85% # Class of committed instruction
system.cpu.commit.op_class_0::SimdShaSigma3            0      0.00%     78.85% # Class of committed instruction
system.cpu.commit.op_class_0::MemRead         1027896     14.08%     92.93% # Class of committed instruction
system.cpu.commit.op_class_0::MemWrite         133567      1.83%     94.76% # Class of committed instruction
system.cpu.commit.op_class_0::FloatMemRead       379222      5.20%     99.96% # Class of committed instruction
system.cpu.commit.op_class_0::FloatMemWrite         3129      0.04%    100.00% # Class of committed instruction
system.cpu.commit.op_class_0::IprAccess             0      0.00%    100.00% # Class of committed instruction
system.cpu.commit.op_class_0::InstPrefetch            0      0.00%    100.00% # Class of committed instruction
system.cpu.commit.op_class_0::total           7299519                       # Class of committed instruction
system.cpu.commit.bw_lim_events               3462724                       # number cycles where commit BW limit reached
system.cpu.rob.rob_reads                      8508483                       # The number of ROB reads
system.cpu.rob.rob_writes                    14778775                       # The number of ROB writes
system.cpu.timesIdled                             262                       # Number of times that the entire CPU went into an idle state and unscheduled itself
system.cpu.idleCycles                           23052                       # Total number of cycles that the CPU has spent unscheduled due to idling
system.cpu.committedInsts                     5356810                       # Number of Instructions Simulated
system.cpu.committedOps                       7299519                       # Number of Ops (including micro ops) Simulated
system.cpu.cpi                               0.861693                       # CPI: Cycles Per Instruction
system.cpu.cpi_total                         0.861693                       # CPI: Total CPI of All Threads
system.cpu.ipc                               1.160506                       # IPC: Instructions Per Cycle
system.cpu.ipc_total                         1.160506                       # IPC: Total IPC of All Threads
system.cpu.int_regfile_reads                 11186213                       # number of integer regfile reads
system.cpu.int_regfile_writes                 5538280                       # number of integer regfile writes
system.cpu.fp_regfile_reads                    632108                       # number of floating regfile reads
system.cpu.fp_regfile_writes                  1262592                       # number of floating regfile writes
system.cpu.cc_regfile_reads                   1930920                       # number of cc regfile reads
system.cpu.cc_regfile_writes                  4589861                       # number of cc regfile writes
system.cpu.misc_regfile_reads                 2081655                       # number of misc regfile reads
system.cpu.dcache.tags.pwrStateResidencyTicks::UNDEFINED   2307963500                       # Cumulative time (in ticks) in various power states
system.cpu.dcache.tags.tagsinuse           253.793471                       # Cycle average of tags in use
system.cpu.dcache.tags.total_refs             1053492                       # Total number of references to valid blocks.
system.cpu.dcache.tags.sampled_refs               764                       # Sample count of references to valid blocks.
system.cpu.dcache.tags.avg_refs           1378.916230                       # Average number of references to valid blocks.
system.cpu.dcache.tags.warmup_cycle            190000                       # Cycle when the warmup percentage was hit.
system.cpu.dcache.tags.occ_blocks::.cpu.data   253.793471                       # Average occupied blocks per requestor
system.cpu.dcache.tags.occ_percent::.cpu.data     0.991381                       # Average percentage of cache occupancy
system.cpu.dcache.tags.occ_percent::total     0.991381                       # Average percentage of cache occupancy
system.cpu.dcache.tags.occ_task_id_blocks::1024          256                       # Occupied blocks per task id
system.cpu.dcache.tags.age_task_id_blocks_1024::0           29                       # Occupied blocks per task id
system.cpu.dcache.tags.age_task_id_blocks_1024::3          227                       # Occupied blocks per task id
system.cpu.dcache.tags.occ_task_id_percent::1024            1                       # Percentage of cache occupancy per task id
system.cpu.dcache.tags.tag_accesses           8434676                       # Number of tag accesses
system.cpu.dcache.tags.data_accesses          8434676                       # Number of data accesses
system.cpu.dcache.pwrStateResidencyTicks::UNDEFINED   2307963500                       # Cumulative time (in ticks) in various power states
system.cpu.dcache.ReadReq_hits::.cpu.data       916302                       # number of ReadReq hits
system.cpu.dcache.ReadReq_hits::total          916302                       # number of ReadReq hits
system.cpu.dcache.WriteReq_hits::.cpu.data       136421                       # number of WriteReq hits
system.cpu.dcache.WriteReq_hits::total         136421                       # number of WriteReq hits
system.cpu.dcache.SoftPFReq_hits::.cpu.data            5                       # number of SoftPFReq hits
system.cpu.dcache.SoftPFReq_hits::total             5                       # number of SoftPFReq hits
system.cpu.dcache.demand_hits::.cpu.data      1052723                       # number of demand (read+write) hits
system.cpu.dcache.demand_hits::total          1052723                       # number of demand (read+write) hits
system.cpu.dcache.overall_hits::.cpu.data      1052728                       # number of overall hits
system.cpu.dcache.overall_hits::total         1052728                       # number of overall hits
system.cpu.dcache.ReadReq_misses::.cpu.data          929                       # number of ReadReq misses
system.cpu.dcache.ReadReq_misses::total           929                       # number of ReadReq misses
system.cpu.dcache.WriteReq_misses::.cpu.data          275                       # number of WriteReq misses
system.cpu.dcache.WriteReq_misses::total          275                       # number of WriteReq misses
system.cpu.dcache.SoftPFReq_misses::.cpu.data          307                       # number of SoftPFReq misses
system.cpu.dcache.SoftPFReq_misses::total          307                       # number of SoftPFReq misses
system.cpu.dcache.demand_misses::.cpu.data         1204                       # number of demand (read+write) misses
system.cpu.dcache.demand_misses::total           1204                       # number of demand (read+write) misses
system.cpu.dcache.overall_misses::.cpu.data         1511                       # number of overall misses
system.cpu.dcache.overall_misses::total          1511                       # number of overall misses
system.cpu.dcache.ReadReq_miss_latency::.cpu.data     46875000                       # number of ReadReq miss cycles
system.cpu.dcache.ReadReq_miss_latency::total     46875000                       # number of ReadReq miss cycles
system.cpu.dcache.WriteReq_miss_latency::.cpu.data     22375000                       # number of WriteReq miss cycles
system.cpu.dcache.WriteReq_miss_latency::total     22375000                       # number of WriteReq miss cycles
system.cpu.dcache.demand_miss_latency::.cpu.data     69250000                       # number of demand (read+write) miss cycles
system.cpu.dcache.demand_miss_latency::total     69250000                       # number of demand (read+write) miss cycles
system.cpu.dcache.overall_miss_latency::.cpu.data     69250000                       # number of overall miss cycles
system.cpu.dcache.overall_miss_latency::total     69250000                       # number of overall miss cycles
system.cpu.dcache.ReadReq_accesses::.cpu.data       917231                       # number of ReadReq accesses(hits+misses)
system.cpu.dcache.ReadReq_accesses::total       917231                       # number of ReadReq accesses(hits+misses)
system.cpu.dcache.WriteReq_accesses::.cpu.data       136696                       # number of WriteReq accesses(hits+misses)
system.cpu.dcache.WriteReq_accesses::total       136696                       # number of WriteReq accesses(hits+misses)
system.cpu.dcache.SoftPFReq_accesses::.cpu.data          312                       # number of SoftPFReq accesses(hits+misses)
system.cpu.dcache.SoftPFReq_accesses::total          312                       # number of SoftPFReq accesses(hits+misses)
system.cpu.dcache.demand_accesses::.cpu.data      1053927                       # number of demand (read+write) accesses
system.cpu.dcache.demand_accesses::total      1053927                       # number of demand (read+write) accesses
system.cpu.dcache.overall_accesses::.cpu.data      1054239                       # number of overall (read+write) accesses
system.cpu.dcache.overall_accesses::total      1054239                       # number of overall (read+write) accesses
system.cpu.dcache.ReadReq_miss_rate::.cpu.data     0.001013                       # miss rate for ReadReq accesses
system.cpu.dcache.ReadReq_miss_rate::total     0.001013                       # miss rate for ReadReq accesses
system.cpu.dcache.WriteReq_miss_rate::.cpu.data     0.002012                       # miss rate for WriteReq accesses
system.cpu.dcache.WriteReq_miss_rate::total     0.002012                       # miss rate for WriteReq accesses
system.cpu.dcache.SoftPFReq_miss_rate::.cpu.data     0.983974                       # miss rate for SoftPFReq accesses
system.cpu.dcache.SoftPFReq_miss_rate::total     0.983974                       # miss rate for SoftPFReq accesses
system.cpu.dcache.demand_miss_rate::.cpu.data     0.001142                       # miss rate for demand accesses
system.cpu.dcache.demand_miss_rate::total     0.001142                       # miss rate for demand accesses
[...]
system.l3bus.snoop_fanout::1                        0      0.00%    100.00% # Request fanout histogram
system.l3bus.snoop_fanout::overflows                0      0.00%    100.00% # Request fanout histogram
system.l3bus.snoop_fanout::min_value                0                       # Request fanout histogram
system.l3bus.snoop_fanout::max_value                0                       # Request fanout histogram
system.l3bus.snoop_fanout::total                 1103                       # Request fanout histogram
system.l3bus.reqLayer0.occupancy               551500                       # Layer occupancy (ticks)
system.l3bus.reqLayer0.utilization                0.0                       # Layer utilization (%)
system.l3bus.respLayer0.occupancy             2757500                       # Layer occupancy (ticks)
system.l3bus.respLayer0.utilization               0.1                       # Layer utilization (%)
system.l3cache.tags.pwrStateResidencyTicks::UNDEFINED   2307963500                       # Cumulative time (in ticks) in various power states
system.l3cache.tags.tagsinuse             1031.343763                       # Cycle average of tags in use
system.l3cache.tags.total_refs                   1103                       # Total number of references to valid blocks.
system.l3cache.tags.sampled_refs                 1103                       # Sample count of references to valid blocks.
system.l3cache.tags.avg_refs                        1                       # Average number of references to valid blocks.
system.l3cache.tags.warmup_cycle                76000                       # Cycle when the warmup percentage was hit.
system.l3cache.tags.occ_blocks::.cpu.inst   385.729942                       # Average occupied blocks per requestor
system.l3cache.tags.occ_blocks::.cpu.data   645.613821                       # Average occupied blocks per requestor
system.l3cache.tags.occ_percent::.cpu.inst     0.023543                       # Average percentage of cache occupancy
system.l3cache.tags.occ_percent::.cpu.data     0.039405                       # Average percentage of cache occupancy
system.l3cache.tags.occ_percent::total       0.062948                       # Average percentage of cache occupancy
system.l3cache.tags.occ_task_id_blocks::1024         1103                       # Occupied blocks per task id
system.l3cache.tags.age_task_id_blocks_1024::0           57                       # Occupied blocks per task id
system.l3cache.tags.age_task_id_blocks_1024::3         1046                       # Occupied blocks per task id
system.l3cache.tags.occ_task_id_percent::1024     0.067322                       # Percentage of cache occupancy per task id
system.l3cache.tags.tag_accesses                18751                       # Number of tag accesses
system.l3cache.tags.data_accesses               18751                       # Number of data accesses
system.l3cache.pwrStateResidencyTicks::UNDEFINED   2307963500                       # Cumulative time (in ticks) in various power states
system.l3cache.ReadExReq_misses::.cpu.data          272                       # number of ReadExReq misses
system.l3cache.ReadExReq_misses::total            272                       # number of ReadExReq misses
system.l3cache.ReadSharedReq_misses::.cpu.inst          430                       # number of ReadSharedReq misses
system.l3cache.ReadSharedReq_misses::.cpu.data          401                       # number of ReadSharedReq misses
system.l3cache.ReadSharedReq_misses::total          831                       # number of ReadSharedReq misses
system.l3cache.demand_misses::.cpu.inst           430                       # number of demand (read+write) misses
system.l3cache.demand_misses::.cpu.data           673                       # number of demand (read+write) misses
system.l3cache.demand_misses::total              1103                       # number of demand (read+write) misses
system.l3cache.overall_misses::.cpu.inst          430                       # number of overall misses
system.l3cache.overall_misses::.cpu.data          673                       # number of overall misses
system.l3cache.overall_misses::total             1103                       # number of overall misses
system.l3cache.ReadExReq_miss_latency::.cpu.data     18666500                       # number of ReadExReq miss cycles
system.l3cache.ReadExReq_miss_latency::total     18666500                       # number of ReadExReq miss cycles
system.l3cache.ReadSharedReq_miss_latency::.cpu.inst     31686500                       # number of ReadSharedReq miss cycles
system.l3cache.ReadSharedReq_miss_latency::.cpu.data     27356000                       # number of ReadSharedReq miss cycles
system.l3cache.ReadSharedReq_miss_latency::total     59042500                       # number of ReadSharedReq miss cycles
system.l3cache.demand_miss_latency::.cpu.inst     31686500                       # number of demand (read+write) miss cycles
system.l3cache.demand_miss_latency::.cpu.data     46022500                       # number of demand (read+write) miss cycles
system.l3cache.demand_miss_latency::total     77709000                       # number of demand (read+write) miss cycles
system.l3cache.overall_miss_latency::.cpu.inst     31686500                       # number of overall miss cycles
system.l3cache.overall_miss_latency::.cpu.data     46022500                       # number of overall miss cycles
system.l3cache.overall_miss_latency::total     77709000                       # number of overall miss cycles
system.l3cache.ReadExReq_accesses::.cpu.data          272                       # number of ReadExReq accesses(hits+misses)
system.l3cache.ReadExReq_accesses::total          272                       # number of ReadExReq accesses(hits+misses)
system.l3cache.ReadSharedReq_accesses::.cpu.inst          430                       # number of ReadSharedReq accesses(hits+misses)
system.l3cache.ReadSharedReq_accesses::.cpu.data          401                       # number of ReadSharedReq accesses(hits+misses)
system.l3cache.ReadSharedReq_accesses::total          831                       # number of ReadSharedReq accesses(hits+misses)
system.l3cache.demand_accesses::.cpu.inst          430                       # number of demand (read+write) accesses
system.l3cache.demand_accesses::.cpu.data          673                       # number of demand (read+write) accesses
system.l3cache.demand_accesses::total            1103                       # number of demand (read+write) accesses
system.l3cache.overall_accesses::.cpu.inst          430                       # number of overall (read+write) accesses
system.l3cache.overall_accesses::.cpu.data          673                       # number of overall (read+write) accesses
system.l3cache.overall_accesses::total           1103                       # number of overall (read+write) accesses
system.l3cache.ReadExReq_miss_rate::.cpu.data            1                       # miss rate for ReadExReq accesses
system.l3cache.ReadExReq_miss_rate::total            1                       # miss rate for ReadExReq accesses
system.l3cache.ReadSharedReq_miss_rate::.cpu.inst            1                       # miss rate for ReadSharedReq accesses
system.l3cache.ReadSharedReq_miss_rate::.cpu.data            1                       # miss rate for ReadSharedReq accesses
system.l3cache.ReadSharedReq_miss_rate::total            1                       # miss rate for ReadSharedReq accesses
system.l3cache.demand_miss_rate::.cpu.inst            1                       # miss rate for demand accesses
system.l3cache.demand_miss_rate::.cpu.data            1                       # miss rate for demand accesses
system.l3cache.demand_miss_rate::total              1                       # miss rate for demand accesses
system.l3cache.overall_miss_rate::.cpu.inst            1                       # miss rate for overall accesses
system.l3cache.overall_miss_rate::.cpu.data            1                       # miss rate for overall accesses
system.l3cache.overall_miss_rate::total             1                       # miss rate for overall accesses
system.l3cache.ReadExReq_avg_miss_latency::.cpu.data 68626.838235                       # average ReadExReq miss latency
system.l3cache.ReadExReq_avg_miss_latency::total 68626.838235                       # average ReadExReq miss latency
system.l3cache.ReadSharedReq_avg_miss_latency::.cpu.inst 73689.534884                       # average ReadSharedReq miss latency
system.l3cache.ReadSharedReq_avg_miss_latency::.cpu.data 68219.451372                       # average ReadSharedReq miss latency
system.l3cache.ReadSharedReq_avg_miss_latency::total 71049.939832                       # average ReadSharedReq miss latency
system.l3cache.demand_avg_miss_latency::.cpu.inst 73689.534884                       # average overall miss latency
system.l3cache.demand_avg_miss_latency::.cpu.data 68384.101040                       # average overall miss latency
system.l3cache.demand_avg_miss_latency::total 70452.402539                       # average overall miss latency
system.l3cache.overall_avg_miss_latency::.cpu.inst 73689.534884                       # average overall miss latency
system.l3cache.overall_avg_miss_latency::.cpu.data 68384.101040                       # average overall miss latency
system.l3cache.overall_avg_miss_latency::total 70452.402539                       # average overall miss latency
system.l3cache.blocked_cycles::no_mshrs             0                       # number of cycles access was blocked
system.l3cache.blocked_cycles::no_targets            0                       # number of cycles access was blocked
system.l3cache.blocked::no_mshrs                    0                       # number of cycles access was blocked
system.l3cache.blocked::no_targets                  0                       # number of cycles access was blocked
system.l3cache.avg_blocked_cycles::no_mshrs          nan                       # average number of cycles each access was blocked
system.l3cache.avg_blocked_cycles::no_targets          nan                       # average number of cycles each access was blocked
system.l3cache.ReadExReq_mshr_misses::.cpu.data          272                       # number of ReadExReq MSHR misses
system.l3cache.ReadExReq_mshr_misses::total          272                       # number of ReadExReq MSHR misses
system.l3cache.ReadSharedReq_mshr_misses::.cpu.inst          430                       # number of ReadSharedReq MSHR misses
system.l3cache.ReadSharedReq_mshr_misses::.cpu.data          401                       # number of ReadSharedReq MSHR misses
system.l3cache.ReadSharedReq_mshr_misses::total          831                       # number of ReadSharedReq MSHR misses
system.l3cache.demand_mshr_misses::.cpu.inst          430                       # number of demand (read+write) MSHR misses
system.l3cache.demand_mshr_misses::.cpu.data          673                       # number of demand (read+write) MSHR misses
system.l3cache.demand_mshr_misses::total         1103                       # number of demand (read+write) MSHR misses
system.l3cache.overall_mshr_misses::.cpu.inst          430                       # number of overall MSHR misses
system.l3cache.overall_mshr_misses::.cpu.data          673                       # number of overall MSHR misses
system.l3cache.overall_mshr_misses::total         1103                       # number of overall MSHR misses
system.l3cache.ReadExReq_mshr_miss_latency::.cpu.data     18122500                       # number of ReadExReq MSHR miss cycles
system.l3cache.ReadExReq_mshr_miss_latency::total     18122500                       # number of ReadExReq MSHR miss cycles
system.l3cache.ReadSharedReq_mshr_miss_latency::.cpu.inst     30826500                       # number of ReadSharedReq MSHR miss cycles
system.l3cache.ReadSharedReq_mshr_miss_latency::.cpu.data     26554000                       # number of ReadSharedReq MSHR miss cycles
system.l3cache.ReadSharedReq_mshr_miss_latency::total     57380500                       # number of ReadSharedReq MSHR miss cycles
system.l3cache.demand_mshr_miss_latency::.cpu.inst     30826500                       # number of demand (read+write) MSHR miss cycles
system.l3cache.demand_mshr_miss_latency::.cpu.data     44676500                       # number of demand (read+write) MSHR miss cycles
system.l3cache.demand_mshr_miss_latency::total     75503000                       # number of demand (read+write) MSHR miss cycles
system.l3cache.overall_mshr_miss_latency::.cpu.inst     30826500                       # number of overall MSHR miss cycles
system.l3cache.overall_mshr_miss_latency::.cpu.data     44676500                       # number of overall MSHR miss cycles
system.l3cache.overall_mshr_miss_latency::total     75503000                       # number of overall MSHR miss cycles
system.l3cache.ReadExReq_mshr_miss_rate::.cpu.data            1                       # mshr miss rate for ReadExReq accesses
system.l3cache.ReadExReq_mshr_miss_rate::total            1                       # mshr miss rate for ReadExReq accesses
system.l3cache.ReadSharedReq_mshr_miss_rate::.cpu.inst            1                       # mshr miss rate for ReadSharedReq accesses
system.l3cache.ReadSharedReq_mshr_miss_rate::.cpu.data            1                       # mshr miss rate for ReadSharedReq accesses
system.l3cache.ReadSharedReq_mshr_miss_rate::total            1                       # mshr miss rate for ReadSharedReq accesses
system.l3cache.demand_mshr_miss_rate::.cpu.inst            1                       # mshr miss rate for demand accesses
system.l3cache.demand_mshr_miss_rate::.cpu.data            1                       # mshr miss rate for demand accesses
system.l3cache.demand_mshr_miss_rate::total            1                       # mshr miss rate for demand accesses
system.l3cache.overall_mshr_miss_rate::.cpu.inst            1                       # mshr miss rate for overall accesses
system.l3cache.overall_mshr_miss_rate::.cpu.data            1                       # mshr miss rate for overall accesses
system.l3cache.overall_mshr_miss_rate::total            1                       # mshr miss rate for overall accesses
system.l3cache.ReadExReq_avg_mshr_miss_latency::.cpu.data 66626.838235                       # average ReadExReq mshr miss latency
system.l3cache.ReadExReq_avg_mshr_miss_latency::total 66626.838235                       # average ReadExReq mshr miss latency
system.l3cache.ReadSharedReq_avg_mshr_miss_latency::.cpu.inst 71689.534884                       # average ReadSharedReq mshr miss latency
system.l3cache.ReadSharedReq_avg_mshr_miss_latency::.cpu.data 66219.451372                       # average ReadSharedReq mshr miss latency
system.l3cache.ReadSharedReq_avg_mshr_miss_latency::total 69049.939832                       # average ReadSharedReq mshr miss latency
system.l3cache.demand_avg_mshr_miss_latency::.cpu.inst 71689.534884                       # average overall mshr miss latency
system.l3cache.demand_avg_mshr_miss_latency::.cpu.data 66384.101040                       # average overall mshr miss latency
system.l3cache.demand_avg_mshr_miss_latency::total 68452.402539                       # average overall mshr miss latency
system.l3cache.overall_avg_mshr_miss_latency::.cpu.inst 71689.534884                       # average overall mshr miss latency
system.l3cache.overall_avg_mshr_miss_latency::.cpu.data 66384.101040                       # average overall mshr miss latency
system.l3cache.overall_avg_mshr_miss_latency::total 68452.402539                       # average overall mshr miss latency
system.l3cache.replacements                         0                       # number of replacements
system.membus.snoop_filter.tot_requests          1103                       # Total number of requests made to the snoop filter.
system.membus.snoop_filter.hit_single_requests            0                       # Number of requests hitting in the snoop filter with a single holder of the requested data.
system.membus.snoop_filter.hit_multi_requests            0                       # Number of requests hitting in the snoop filter with multiple (>1) holders of the requested data.
system.membus.snoop_filter.tot_snoops               0                       # Total number of snoops made to the snoop filter.
system.membus.snoop_filter.hit_single_snoops            0                       # Number of snoops hitting in the snoop filter with a single holder of the requested data.
system.membus.snoop_filter.hit_multi_snoops            0                       # Number of snoops hitting in the snoop filter with multiple (>1) holders of the requested data.
system.membus.pwrStateResidencyTicks::UNDEFINED   2307963500                       # Cumulative time (in ticks) in various power states
system.membus.trans_dist::ReadResp                831                       # Transaction distribution
system.membus.trans_dist::ReadExReq               272                       # Transaction distribution
system.membus.trans_dist::ReadExResp              272                       # Transaction distribution
system.membus.trans_dist::ReadSharedReq           831                       # Transaction distribution
system.membus.pkt_count_system.l3cache.mem_side::system.mem_ctrl.port         2206                       # Packet count per connected master and slave (bytes)
system.membus.pkt_count_system.l3cache.mem_side::total         2206                       # Packet count per connected master and slave (bytes)
system.membus.pkt_count::total                   2206                       # Packet count per connected master and slave (bytes)
system.membus.pkt_size_system.l3cache.mem_side::system.mem_ctrl.port        70592                       # Cumulative packet size per connected master and slave (bytes)
system.membus.pkt_size_system.l3cache.mem_side::total        70592                       # Cumulative packet size per connected master and slave (bytes)
system.membus.pkt_size::total                   70592                       # Cumulative packet size per connected master and slave (bytes)
system.membus.snoops                                0                       # Total snoops (count)
system.membus.snoopTraffic                          0                       # Total snoop traffic (bytes)
system.membus.snoop_fanout::samples              1103                       # Request fanout histogram
system.membus.snoop_fanout::mean                    0                       # Request fanout histogram
system.membus.snoop_fanout::stdev                   0                       # Request fanout histogram
system.membus.snoop_fanout::underflows              0      0.00%      0.00% # Request fanout histogram
system.membus.snoop_fanout::0                    1103    100.00%    100.00% # Request fanout histogram
system.membus.snoop_fanout::1                       0      0.00%    100.00% # Request fanout histogram
system.membus.snoop_fanout::overflows               0      0.00%    100.00% # Request fanout histogram
system.membus.snoop_fanout::min_value               0                       # Request fanout histogram
system.membus.snoop_fanout::max_value               0                       # Request fanout histogram
system.membus.snoop_fanout::total                1103                       # Request fanout histogram
system.membus.reqLayer0.occupancy              551500                       # Layer occupancy (ticks)
system.membus.reqLayer0.utilization               0.0                       # Layer utilization (%)
system.membus.respLayer0.occupancy            3003250                       # Layer occupancy (ticks)
system.membus.respLayer0.utilization              0.1                       # Layer utilization (%)

---------- End Simulation Statistics   ----------
